Version 4
SHEET 1 984 680
WIRE -80 -144 -112 -144
WIRE 32 -144 0 -144
WIRE -112 -16 -112 -144
WIRE -64 -16 -112 -16
WIRE -64 0 -64 -16
WIRE 32 0 32 -144
WIRE 32 0 -16 0
WIRE 32 16 32 0
WIRE -80 48 -128 48
WIRE 160 48 0 48
WIRE -128 160 -128 48
WIRE 160 160 160 48
WIRE 320 160 160 160
WIRE 528 176 448 176
WIRE 704 176 608 176
WIRE 320 192 160 192
WIRE -128 432 -128 240
WIRE 32 432 -128 432
WIRE 160 432 160 192
WIRE 160 432 32 432
WIRE 32 464 32 432
FLAG 32 464 0
FLAG 32 16 0
FLAG 704 176 0
SYMBOL sw 16 48 R90
SYMATTR InstName S1
SYMATTR Value MYSW
SYMBOL voltage -128 144 R0
WINDOW 123 0 0 Left 0
WINDOW 39 0 0 Left 0
SYMATTR InstName V1
SYMATTR Value 7
SYMBOL voltage -96 -144 R270
WINDOW 0 32 56 VTop 2
WINDOW 3 -32 56 VBottom 2
WINDOW 123 0 0 Left 0
WINDOW 39 0 0 Left 0
SYMATTR InstName V2
SYMATTR Value PULSE(0 1 1 1f 1f 200 200 1)
SYMBOL voltage 512 176 R270
WINDOW 0 32 56 VTop 2
WINDOW 3 -32 56 VBottom 2
WINDOW 123 0 0 Left 0
WINDOW 39 -60 56 VBottom 2
SYMATTR InstName V3
SYMATTR Value 0
SYMATTR SpiceLine Rser=0
SYMBOL Servo 384 176 R0
SYMATTR InstName X1
TEXT 288 -144 Left 2 !.tran 0 5
TEXT 384 24 Left 2 !.model MYSW SW(Ron=1 Roff=1Meg Vt=.5 Vh=-.4)
