********************************
* Copyright:                   *
* Vishay Intertechnology, Inc. *
********************************
*Aug 10, 2015
*ECN S15-1845, Rev. A
*File Name: SQP50P03-07_PS.txt and SQP50P03-07_PS.lib
*This document is intended as a SPICE modeling guideline and does not
*constitute a commercial product datasheet. Designers should refer to the
*appropriate datasheet of the same number for guaranteed specification
*limits.
.SUBCKT SQP50P03-07 D G S 
M1 3 GX S S PMOS W= 8125808u L= 0.30u 
M2 S GX S D NMOS W= 8125808u L= 0.72u 
R1 D 3 3.175e-03 TC=3.416e-03,3.775e-06
CGS GX S 1.979e-09 
CGD GX D 1.777e-10 
RG G GY 1m 
RTCV 100 S 1e6 TC=0.132e-03,1.749e-06
ETCV GY GX 100 200 1 
ITCV S 100 1u 
VTCV 200 S 1 
DBD D S DBD 8125808u 
**************************************************************** 
.MODEL PMOS PMOS ( LEVEL = 3 TOX = 5e-8 
+ RS = 0 KP = 3.014e-06 NSUB = 3.474e+16 
+ KAPPA = 8.072e-03 NFS = 4.340e+11 
+ LD = 0 IS = 0 TPG = -1    )
*************************************************************** 
.MODEL NMOS NMOS ( LEVEL = 3 TOX = 5e-8 
+NSUB = 2.272e+16 IS = 0 TPG = -1    )
**************************************************************** 
.MODEL DBD D ( 
+FC = 0.1 TT = 1.001e-07 T_measured = 25 BV = 31
+RS = 1.705e-02 N = 1.087e+00 IS = 1.402e-12 
+EG = 1.224e+00 XTI = 1.035e+00 TRS1 = 3.230e-03
+CJO = 7.557e-11 VJ = 3.146e+00 M = 9.022e-01 ) 
.ENDS 
